!- Windows Line endings 

Version,
    23.2.0;                   !- Version Identifier

SimulationControl,
    No,                       !- Do Zone Sizing Calculation
    No,                       !- Do System Sizing Calculation
    No,                       !- Do Plant Sizing Calculation
    Yes,                      !- Run Simulation for Sizing Periods
    Yes,                      !- Run Simulation for Weather File Run Periods
    No,                       !- Do HVAC Sizing Simulation for Sizing Periods
    1;                        !- Maximum Number of HVAC Sizing Simulation Passes

Building,
    TEST,                     !- Name
    0,                        !- North Axis
    Suburbs,                  !- Terrain
    0.04,                     !- Loads Convergence Tolerance Value
    0.4,                      !- Temperature Convergence Tolerance Value
    FullExterior,             !- Solar Distribution
    25,                       !- Maximum Number of Warmup Days
    1;                        !- Minimum Number of Warmup Days

SurfaceConvectionAlgorithm:Inside,
    TARP;                     !- Algorithm

SurfaceConvectionAlgorithm:Outside,
    DOE-2;                    !- Algorithm

HeatBalanceAlgorithm,
    ConductionTransferFunction,    !- Algorithm
    200,                      !- Surface Temperature Upper Limit
    0.1,                      !- Minimum Surface Convection Heat Transfer Coefficient Value
    1000;                     !- Maximum Surface Convection Heat Transfer Coefficient Value

Timestep,
    6;                        !- Number of Timesteps per Hour

Site:Location,
    Kuala Lumpur,             !- Name
    0,                        !- Latitude
    0,                        !- Longitude
    -8,                       !- Time Zone
    63;                       !- Elevation

RunPeriod,
    simulation_range,         !- Name
    1,                        !- Begin Month
    1,                        !- Begin Day of Month
    ,                         !- Begin Year
    12,                       !- End Month
    31,                       !- End Day of Month
    ,                         !- End Year
    ,                         !- Day of Week for Start Day
    Yes,                      !- Use Weather File Holidays and Special Days
    Yes,                      !- Use Weather File Daylight Saving Period
    No,                       !- Apply Weekend Holiday Rule
    Yes,                      !- Use Weather File Rain Indicators
    Yes,                      !- Use Weather File Snow Indicators
    No,                       !- Treat Weather as Actual
    Hour24;                   !- First Hour Interpolation Starting Values

Site:GroundTemperature:BuildingSurface,
    28,                       !- January Ground Temperature
    28,                       !- February Ground Temperature
    28,                       !- March Ground Temperature
    28,                       !- April Ground Temperature
    28,                       !- May Ground Temperature
    28,                       !- June Ground Temperature
    28,                       !- July Ground Temperature
    28,                       !- August Ground Temperature
    28,                       !- September Ground Temperature
    28,                       !- October Ground Temperature
    28,                       !- November Ground Temperature
    28;                       !- December Ground Temperature

ScheduleTypeLimits,
    On/Off,                   !- Name
    0,                        !- Lower Limit Value
    1,                        !- Upper Limit Value
    Discrete,                 !- Numeric Type
    Percent;                  !- Unit Type

ScheduleTypeLimits,
    Temperature,              !- Name
    ,                         !- Lower Limit Value
    ,                         !- Upper Limit Value
    ,                         !- Numeric Type
    Temperature;              !- Unit Type

ScheduleTypeLimits,
    interger_control_type,    !- Name
    ,                         !- Lower Limit Value
    ,                         !- Upper Limit Value
    Discrete,                 !- Numeric Type
    Dimensionless;            !- Unit Type

ScheduleTypeLimits,
    cont,                     !- Name
    ,                         !- Lower Limit Value
    ,                         !- Upper Limit Value
    Continuous,               !- Numeric Type
    Dimensionless;            !- Unit Type

Schedule:Day:Hourly,
    hourlySchedule,           !- Name
    On/Off,                   !- Schedule Type Limits Name
    0,                        !- Hour 1
    0,                        !- Hour 2
    0,                        !- Hour 3
    0,                        !- Hour 4
    0,                        !- Hour 5
    0,                        !- Hour 6
    0,                        !- Hour 7
    1,                        !- Hour 8
    1,                        !- Hour 9
    1,                        !- Hour 10
    1,                        !- Hour 11
    1,                        !- Hour 12
    1,                        !- Hour 13
    1,                        !- Hour 14
    1,                        !- Hour 15
    1,                        !- Hour 16
    1,                        !- Hour 17
    1,                        !- Hour 18
    0,                        !- Hour 19
    0,                        !- Hour 20
    0,                        !- Hour 21
    0,                        !- Hour 22
    0,                        !- Hour 23
    0;                        !- Hour 24

Schedule:Day:Hourly,
    hourlyOFF,                !- Name
    On/Off,                   !- Schedule Type Limits Name
    0,                        !- Hour 1
    0,                        !- Hour 2
    0,                        !- Hour 3
    0,                        !- Hour 4
    0,                        !- Hour 5
    0,                        !- Hour 6
    0,                        !- Hour 7
    0,                        !- Hour 8
    0,                        !- Hour 9
    0,                        !- Hour 10
    0,                        !- Hour 11
    0,                        !- Hour 12
    0,                        !- Hour 13
    0,                        !- Hour 14
    0,                        !- Hour 15
    0,                        !- Hour 16
    0,                        !- Hour 17
    0,                        !- Hour 18
    0,                        !- Hour 19
    0,                        !- Hour 20
    0,                        !- Hour 21
    0,                        !- Hour 22
    0,                        !- Hour 23
    0;                        !- Hour 24

Schedule:Week:Daily,
    weeklyOffice,             !- Name
    hourlySchedule,           !- Sunday ScheduleDay Name
    hourlySchedule,           !- Monday ScheduleDay Name
    hourlySchedule,           !- Tuesday ScheduleDay Name
    hourlySchedule,           !- Wednesday ScheduleDay Name
    hourlySchedule,           !- Thursday ScheduleDay Name
    hourlySchedule,           !- Friday ScheduleDay Name
    hourlyOFF,                !- Saturday ScheduleDay Name
    hourlyOFF,                !- Holiday ScheduleDay Name
    hourlySchedule,           !- SummerDesignDay ScheduleDay Name
    hourlySchedule,           !- WinterDesignDay ScheduleDay Name
    hourlySchedule,           !- CustomDay1 ScheduleDay Name
    hourlySchedule;           !- CustomDay2 ScheduleDay Name

Schedule:Year,
    office,                   !- Name
    On/Off,                   !- Schedule Type Limits Name
    weeklyOffice,             !- ScheduleWeek Name 1
    1,                        !- Start Month 1
    1,                        !- Start Day 1
    12,                       !- End Month 1
    31;                       !- End Day 1

Schedule:Compact,
    AC_ON,                    !- Name
    On/Off,                   !- Schedule Type Limits Name
    THROUGH: 12/31,           !- Field 1
    FOR: AllDays,             !- Field 2
    Until: 24:00,             !- Field 3
    1;                        !- Field 4

Schedule:Compact,
    24deg,                    !- Name
    Temperature,              !- Schedule Type Limits Name
    THROUGH: 12/31,           !- Field 1
    FOR: AllDays,             !- Field 2
    Until: 24:00,             !- Field 3
    24;                       !- Field 4

Schedule:Compact,
    cooling_control,          !- Name
    interger_control_type,    !- Schedule Type Limits Name
    THROUGH: 12/31,           !- Field 1
    FOR: AllDays,             !- Field 2
    Until: 24:00,             !- Field 3
    2;                        !- Field 4

Schedule:Compact,
    activity_level,           !- Name
    cont,                     !- Schedule Type Limits Name
    THROUGH: 12/31,           !- Field 1
    FOR: AllDays,             !- Field 2
    Until: 24:00,             !- Field 3
    70;                       !- Field 4

Material,
    100mm_RC,                 !- Name
    Smooth,                   !- Roughness
    0.1,                      !- Thickness
    1.73,                     !- Conductivity
    2400,                     !- Density
    837,                      !- Specific Heat
    0.9,                      !- Thermal Absorptance
    0.65,                     !- Solar Absorptance
    0.65;                     !- Visible Absorptance

MATERIAL:NOMASS,
    wall_n_wall_material,     !- Name
    Smooth,                   !- Roughness
    0.3333333333333333,       !- Thermal Resistance
    0.9,                      !- Thermal Absorptance
    0.5,                      !- Solar Absorptance
    0.5;                      !- Visible Absorptance

MATERIAL:NOMASS,
    wall_e_wall_material,     !- Name
    Smooth,                   !- Roughness
    0.3333333333333333,       !- Thermal Resistance
    0.9,                      !- Thermal Absorptance
    0.5,                      !- Solar Absorptance
    0.5;                      !- Visible Absorptance

MATERIAL:NOMASS,
    wall_s_wall_material,     !- Name
    Smooth,                   !- Roughness
    0.3333333333333333,       !- Thermal Resistance
    0.9,                      !- Thermal Absorptance
    0.5,                      !- Solar Absorptance
    0.5;                      !- Visible Absorptance

MATERIAL:NOMASS,
    wall_w_wall_material,     !- Name
    Smooth,                   !- Roughness
    0.3333333333333333,       !- Thermal Resistance
    0.9,                      !- Thermal Absorptance
    0.5,                      !- Solar Absorptance
    0.5;                      !- Visible Absorptance

MATERIAL:NOMASS,
    roof_wall_material,       !- Name
    Smooth,                   !- Roughness
    3.3333333333333335,       !- Thermal Resistance
    0.9,                      !- Thermal Absorptance
    0.5,                      !- Solar Absorptance
    0.5;                      !- Visible Absorptance

WindowMaterial:SimpleGlazingSystem,
    clearFloat,               !- Name
    1,                        !- UFactor
    0.5;                      !- Solar Heat Gain Coefficient

WINDOWMATERIAL:SIMPLEGLAZINGSYSTEM,
    wall_n_window_construction,    !- Name
    3,                        !- UFactor
    0.5;                      !- Solar Heat Gain Coefficient

WINDOWMATERIAL:SIMPLEGLAZINGSYSTEM,
    wall_e_window_construction,    !- Name
    3,                        !- UFactor
    0.5;                      !- Solar Heat Gain Coefficient

WINDOWMATERIAL:SIMPLEGLAZINGSYSTEM,
    wall_s_window_construction,    !- Name
    3,                        !- UFactor
    0.5;                      !- Solar Heat Gain Coefficient

WINDOWMATERIAL:SIMPLEGLAZINGSYSTEM,
    wall_w_window_construction,    !- Name
    3,                        !- UFactor
    0.5;                      !- Solar Heat Gain Coefficient

WINDOWMATERIAL:SIMPLEGLAZINGSYSTEM,
    roof_window_construction,    !- Name
    3,                        !- UFactor
    0.5;                      !- Solar Heat Gain Coefficient

Construction,
    AllSurfaces,              !- Name
    100mm_RC;                 !- Outside Layer

Construction,
    window,                   !- Name
    clearFloat;               !- Outside Layer

CONSTRUCTION,
    wall_n_window_construction,    !- Name
    wall_n_window_construction;    !- Outside Layer

CONSTRUCTION,
    wall_n_wall_material,     !- Name
    wall_n_wall_material;     !- Outside Layer

CONSTRUCTION,
    wall_e_window_construction,    !- Name
    wall_e_window_construction;    !- Outside Layer

CONSTRUCTION,
    wall_e_wall_material,     !- Name
    wall_e_wall_material;     !- Outside Layer

CONSTRUCTION,
    wall_s_window_construction,    !- Name
    wall_s_window_construction;    !- Outside Layer

CONSTRUCTION,
    wall_s_wall_material,     !- Name
    wall_s_wall_material;     !- Outside Layer

CONSTRUCTION,
    wall_w_window_construction,    !- Name
    wall_w_window_construction;    !- Outside Layer

CONSTRUCTION,
    wall_w_wall_material,     !- Name
    wall_w_wall_material;     !- Outside Layer

CONSTRUCTION,
    roof_window_construction,    !- Name
    roof_window_construction;    !- Outside Layer

CONSTRUCTION,
    roof_wall_material,       !- Name
    roof_wall_material;       !- Outside Layer

GlobalGeometryRules,
    UpperLeftCorner,          !- Starting Vertex Position
    Counterclockwise,         !- Vertex Entry Direction
    World,                    !- Coordinate System
    Relative,                 !- Daylighting Reference Point Coordinate System
    Relative;                 !- Rectangular Surface Coordinate System

Zone,
    main,                     !- Name
    0,                        !- Direction of Relative North
    0,                        !- X Origin
    0,                        !- Y Origin
    0,                        !- Z Origin
    1,                        !- Type
    1,                        !- Multiplier
    autocalculate,            !- Ceiling Height
    autocalculate,            !- Volume
    autocalculate,            !- Floor Area
    ,                         !- Zone Inside Convection Algorithm
    ,                         !- Zone Outside Convection Algorithm
    Yes;                      !- Part of Total Floor Area

Zone,
    dummyBlock,               !- Name
    0,                        !- Direction of Relative North
    0,                        !- X Origin
    0,                        !- Y Origin
    -20,                      !- Z Origin
    1,                        !- Type
    1,                        !- Multiplier
    autocalculate,            !- Ceiling Height
    autocalculate,            !- Volume
    autocalculate,            !- Floor Area
    ,                         !- Zone Inside Convection Algorithm
    ,                         !- Zone Outside Convection Algorithm
    Yes;                      !- Part of Total Floor Area

BuildingSurface:Detailed,
    Floor,                    !- Name
    Floor,                    !- Surface Type
    AllSurfaces,              !- Construction Name
    main,                     !- Zone Name
    ,                         !- Space Name
    Ground,                   !- Outside Boundary Condition
    ,                         !- Outside Boundary Condition Object
    NoSun,                    !- Sun Exposure
    NoWind,                   !- Wind Exposure
    autocalculate,            !- View Factor to Ground
    autocalculate,            !- Number of Vertices
    20,                       !- Vertex 1 Xcoordinate
    20,                       !- Vertex 1 Ycoordinate
    0,                        !- Vertex 1 Zcoordinate
    20,                       !- Vertex 2 Xcoordinate
    -10,                      !- Vertex 2 Ycoordinate
    0,                        !- Vertex 2 Zcoordinate
    -10,                      !- Vertex 3 Xcoordinate
    -10,                      !- Vertex 3 Ycoordinate
    0,                        !- Vertex 3 Zcoordinate
    -10,                      !- Vertex 4 Xcoordinate
    20,                       !- Vertex 4 Ycoordinate
    0;                        !- Vertex 4 Zcoordinate

BuildingSurface:Detailed,
    wall_s,                   !- Name
    Wall,                     !- Surface Type
    wall_s_wall_material,     !- Construction Name
    main,                     !- Zone Name
    ,                         !- Space Name
    Outdoors,                 !- Outside Boundary Condition
    ,                         !- Outside Boundary Condition Object
    SunExposed,               !- Sun Exposure
    WindExposed,              !- Wind Exposure
    autocalculate,            !- View Factor to Ground
    autocalculate,            !- Number of Vertices
    -10,                      !- Vertex 1 Xcoordinate
    -10,                      !- Vertex 1 Ycoordinate
    27,                       !- Vertex 1 Zcoordinate
    -10,                      !- Vertex 2 Xcoordinate
    -10,                      !- Vertex 2 Ycoordinate
    0,                        !- Vertex 2 Zcoordinate
    20,                       !- Vertex 3 Xcoordinate
    -10,                      !- Vertex 3 Ycoordinate
    0,                        !- Vertex 3 Zcoordinate
    20,                       !- Vertex 4 Xcoordinate
    -10,                      !- Vertex 4 Ycoordinate
    27;                       !- Vertex 4 Zcoordinate

BuildingSurface:Detailed,
    wall_e,                   !- Name
    Wall,                     !- Surface Type
    wall_e_wall_material,     !- Construction Name
    main,                     !- Zone Name
    ,                         !- Space Name
    Outdoors,                 !- Outside Boundary Condition
    ,                         !- Outside Boundary Condition Object
    SunExposed,               !- Sun Exposure
    WindExposed,              !- Wind Exposure
    autocalculate,            !- View Factor to Ground
    autocalculate,            !- Number of Vertices
    20,                       !- Vertex 1 Xcoordinate
    -10,                      !- Vertex 1 Ycoordinate
    27,                       !- Vertex 1 Zcoordinate
    20,                       !- Vertex 2 Xcoordinate
    -10,                      !- Vertex 2 Ycoordinate
    0,                        !- Vertex 2 Zcoordinate
    20,                       !- Vertex 3 Xcoordinate
    20,                       !- Vertex 3 Ycoordinate
    0,                        !- Vertex 3 Zcoordinate
    20,                       !- Vertex 4 Xcoordinate
    20,                       !- Vertex 4 Ycoordinate
    27;                       !- Vertex 4 Zcoordinate

BuildingSurface:Detailed,
    wall_n,                   !- Name
    Wall,                     !- Surface Type
    wall_n_wall_material,     !- Construction Name
    main,                     !- Zone Name
    ,                         !- Space Name
    Outdoors,                 !- Outside Boundary Condition
    ,                         !- Outside Boundary Condition Object
    SunExposed,               !- Sun Exposure
    WindExposed,              !- Wind Exposure
    autocalculate,            !- View Factor to Ground
    autocalculate,            !- Number of Vertices
    20,                       !- Vertex 1 Xcoordinate
    20,                       !- Vertex 1 Ycoordinate
    27,                       !- Vertex 1 Zcoordinate
    20,                       !- Vertex 2 Xcoordinate
    20,                       !- Vertex 2 Ycoordinate
    0,                        !- Vertex 2 Zcoordinate
    -10,                      !- Vertex 3 Xcoordinate
    20,                       !- Vertex 3 Ycoordinate
    0,                        !- Vertex 3 Zcoordinate
    -10,                      !- Vertex 4 Xcoordinate
    20,                       !- Vertex 4 Ycoordinate
    27;                       !- Vertex 4 Zcoordinate

BuildingSurface:Detailed,
    wall_w,                   !- Name
    Wall,                     !- Surface Type
    wall_w_wall_material,     !- Construction Name
    main,                     !- Zone Name
    ,                         !- Space Name
    Outdoors,                 !- Outside Boundary Condition
    ,                         !- Outside Boundary Condition Object
    SunExposed,               !- Sun Exposure
    WindExposed,              !- Wind Exposure
    autocalculate,            !- View Factor to Ground
    autocalculate,            !- Number of Vertices
    -10,                      !- Vertex 1 Xcoordinate
    20,                       !- Vertex 1 Ycoordinate
    27,                       !- Vertex 1 Zcoordinate
    -10,                      !- Vertex 2 Xcoordinate
    20,                       !- Vertex 2 Ycoordinate
    0,                        !- Vertex 2 Zcoordinate
    -10,                      !- Vertex 3 Xcoordinate
    -10,                      !- Vertex 3 Ycoordinate
    0,                        !- Vertex 3 Zcoordinate
    -10,                      !- Vertex 4 Xcoordinate
    -10,                      !- Vertex 4 Ycoordinate
    27;                       !- Vertex 4 Zcoordinate

BuildingSurface:Detailed,
    roof,                     !- Name
    Roof,                     !- Surface Type
    roof_wall_material,       !- Construction Name
    main,                     !- Zone Name
    ,                         !- Space Name
    Outdoors,                 !- Outside Boundary Condition
    ,                         !- Outside Boundary Condition Object
    SunExposed,               !- Sun Exposure
    WindExposed,              !- Wind Exposure
    autocalculate,            !- View Factor to Ground
    autocalculate,            !- Number of Vertices
    20,                       !- Vertex 1 Xcoordinate
    -10,                      !- Vertex 1 Ycoordinate
    27,                       !- Vertex 1 Zcoordinate
    20,                       !- Vertex 2 Xcoordinate
    20,                       !- Vertex 2 Ycoordinate
    27,                       !- Vertex 2 Zcoordinate
    -10,                      !- Vertex 3 Xcoordinate
    20,                       !- Vertex 3 Ycoordinate
    27,                       !- Vertex 3 Zcoordinate
    -10,                      !- Vertex 4 Xcoordinate
    -10,                      !- Vertex 4 Ycoordinate
    27;                       !- Vertex 4 Zcoordinate

BuildingSurface:Detailed,
    dummy_floor,              !- Name
    Floor,                    !- Surface Type
    AllSurfaces,              !- Construction Name
    dummyBlock,               !- Zone Name
    ,                         !- Space Name
    Outdoors,                 !- Outside Boundary Condition
    ,                         !- Outside Boundary Condition Object
    NoSun,                    !- Sun Exposure
    NoWind,                   !- Wind Exposure
    autocalculate,            !- View Factor to Ground
    autocalculate,            !- Number of Vertices
    -7,                       !- Vertex 1 Xcoordinate
    -7,                       !- Vertex 1 Ycoordinate
    -27,                      !- Vertex 1 Zcoordinate
    -7,                       !- Vertex 2 Xcoordinate
    -10,                      !- Vertex 2 Ycoordinate
    -27,                      !- Vertex 2 Zcoordinate
    -10,                      !- Vertex 3 Xcoordinate
    -10,                      !- Vertex 3 Ycoordinate
    -27,                      !- Vertex 3 Zcoordinate
    -10,                      !- Vertex 4 Xcoordinate
    -7,                       !- Vertex 4 Ycoordinate
    -27;                      !- Vertex 4 Zcoordinate

BuildingSurface:Detailed,
    dummy_s,                  !- Name
    Wall,                     !- Surface Type
    AllSurfaces,              !- Construction Name
    dummyBlock,               !- Zone Name
    ,                         !- Space Name
    Outdoors,                 !- Outside Boundary Condition
    ,                         !- Outside Boundary Condition Object
    NoSun,                    !- Sun Exposure
    NoWind,                   !- Wind Exposure
    autocalculate,            !- View Factor to Ground
    autocalculate,            !- Number of Vertices
    -10,                      !- Vertex 1 Xcoordinate
    -10,                      !- Vertex 1 Ycoordinate
    -24.3,                    !- Vertex 1 Zcoordinate
    -10,                      !- Vertex 2 Xcoordinate
    -10,                      !- Vertex 2 Ycoordinate
    -27,                      !- Vertex 2 Zcoordinate
    -7,                       !- Vertex 3 Xcoordinate
    -10,                      !- Vertex 3 Ycoordinate
    -27,                      !- Vertex 3 Zcoordinate
    -7,                       !- Vertex 4 Xcoordinate
    -10,                      !- Vertex 4 Ycoordinate
    -24.3;                    !- Vertex 4 Zcoordinate

BuildingSurface:Detailed,
    dummy_e,                  !- Name
    Wall,                     !- Surface Type
    AllSurfaces,              !- Construction Name
    dummyBlock,               !- Zone Name
    ,                         !- Space Name
    Outdoors,                 !- Outside Boundary Condition
    ,                         !- Outside Boundary Condition Object
    NoSun,                    !- Sun Exposure
    NoWind,                   !- Wind Exposure
    autocalculate,            !- View Factor to Ground
    autocalculate,            !- Number of Vertices
    -7,                       !- Vertex 1 Xcoordinate
    -10,                      !- Vertex 1 Ycoordinate
    -24.3,                    !- Vertex 1 Zcoordinate
    -7,                       !- Vertex 2 Xcoordinate
    -10,                      !- Vertex 2 Ycoordinate
    -27,                      !- Vertex 2 Zcoordinate
    -7,                       !- Vertex 3 Xcoordinate
    -7,                       !- Vertex 3 Ycoordinate
    -27,                      !- Vertex 3 Zcoordinate
    -7,                       !- Vertex 4 Xcoordinate
    -7,                       !- Vertex 4 Ycoordinate
    -24.3;                    !- Vertex 4 Zcoordinate

BuildingSurface:Detailed,
    dummy_n,                  !- Name
    Wall,                     !- Surface Type
    AllSurfaces,              !- Construction Name
    dummyBlock,               !- Zone Name
    ,                         !- Space Name
    Outdoors,                 !- Outside Boundary Condition
    ,                         !- Outside Boundary Condition Object
    NoSun,                    !- Sun Exposure
    NoWind,                   !- Wind Exposure
    autocalculate,            !- View Factor to Ground
    autocalculate,            !- Number of Vertices
    -7,                       !- Vertex 1 Xcoordinate
    -7,                       !- Vertex 1 Ycoordinate
    -24.3,                    !- Vertex 1 Zcoordinate
    -7,                       !- Vertex 2 Xcoordinate
    -7,                       !- Vertex 2 Ycoordinate
    -27,                      !- Vertex 2 Zcoordinate
    -10,                      !- Vertex 3 Xcoordinate
    -7,                       !- Vertex 3 Ycoordinate
    -27,                      !- Vertex 3 Zcoordinate
    -10,                      !- Vertex 4 Xcoordinate
    -7,                       !- Vertex 4 Ycoordinate
    -24.3;                    !- Vertex 4 Zcoordinate

BuildingSurface:Detailed,
    dummy_w,                  !- Name
    Wall,                     !- Surface Type
    AllSurfaces,              !- Construction Name
    dummyBlock,               !- Zone Name
    ,                         !- Space Name
    Outdoors,                 !- Outside Boundary Condition
    ,                         !- Outside Boundary Condition Object
    NoSun,                    !- Sun Exposure
    NoWind,                   !- Wind Exposure
    autocalculate,            !- View Factor to Ground
    autocalculate,            !- Number of Vertices
    -10,                      !- Vertex 1 Xcoordinate
    -7,                       !- Vertex 1 Ycoordinate
    -24.3,                    !- Vertex 1 Zcoordinate
    -10,                      !- Vertex 2 Xcoordinate
    -7,                       !- Vertex 2 Ycoordinate
    -27,                      !- Vertex 2 Zcoordinate
    -10,                      !- Vertex 3 Xcoordinate
    -10,                      !- Vertex 3 Ycoordinate
    -27,                      !- Vertex 3 Zcoordinate
    -10,                      !- Vertex 4 Xcoordinate
    -10,                      !- Vertex 4 Ycoordinate
    -24.3;                    !- Vertex 4 Zcoordinate

BuildingSurface:Detailed,
    dummy_roof,               !- Name
    Roof,                     !- Surface Type
    AllSurfaces,              !- Construction Name
    dummyBlock,               !- Zone Name
    ,                         !- Space Name
    Outdoors,                 !- Outside Boundary Condition
    ,                         !- Outside Boundary Condition Object
    NoSun,                    !- Sun Exposure
    NoWind,                   !- Wind Exposure
    autocalculate,            !- View Factor to Ground
    autocalculate,            !- Number of Vertices
    -7,                       !- Vertex 1 Xcoordinate
    -10,                      !- Vertex 1 Ycoordinate
    -24.3,                    !- Vertex 1 Zcoordinate
    -7,                       !- Vertex 2 Xcoordinate
    -7,                       !- Vertex 2 Ycoordinate
    -24.3,                    !- Vertex 2 Zcoordinate
    -10,                      !- Vertex 3 Xcoordinate
    -7,                       !- Vertex 3 Ycoordinate
    -24.3,                    !- Vertex 3 Zcoordinate
    -10,                      !- Vertex 4 Xcoordinate
    -10,                      !- Vertex 4 Ycoordinate
    -24.3;                    !- Vertex 4 Zcoordinate

WINDOW,
    wall_n_window,            !- Name
    wall_n_window_construction,    !- Construction Name
    wall_n,                   !- Building Surface Name
    ,                         !- Frame and Divider Name
    1.0,                      !- Multiplier
    0,                        !- Starting X Coordinate
    0,                        !- Starting Z Coordinate
    30,                       !- Length
    5.4;                      !- Height

WINDOW,
    wall_s_window,            !- Name